Program Version,EnergyPlus, Version 8.8.0-7c3bbe4830, YMD=2019.08.08 19:44
