Program Version,EnergyPlus, Version 8.8.0-7c3bbe4830, YMD=2019.08.09 15:35,IDD_Version 8.8.0
   ** Warning ** Timestep: Requested number (1) cannot be used when Conduction Finite Difference algorithm is selected.
   **   ~~~   ** ...Timestep is set to 20.
   ************* Beginning Zone Sizing Calculations
   ** Warning ** ProcessScheduleInput: Schedule:Compact="SCHEDULEOSCSLABAVERAGESURFACETEMP", Schedule Type Limits Name="TEMPERATURE" not found -- will not be validated
   ** Warning ** ProcessScheduleInput: Schedule:Compact="SCHEDULEOSCSLABPERIMETERTEMP", Schedule Type Limits Name="TEMPERATURE" not found -- will not be validated
   ** Warning ** ProcessScheduleInput: Schedule:Compact="SCHEDULEOSCSLABCORETEMP", Schedule Type Limits Name="TEMPERATURE" not found -- will not be validated
   ** Warning ** ProcessScheduleInput: Schedule:Constant="{0DDF52CE-8B62-47BB-A700-AC9A9331CE67}", Blank Schedule Type Limits Name input -- will not be validated.
   ** Warning ** ProcessScheduleInput: Schedule:Constant="{ADD9A700-76C5-42E4-BEC8-60B4684847F7}", Blank Schedule Type Limits Name input -- will not be validated.
   ** Warning ** ProcessScheduleInput: Schedule:Constant="ALWAYS OFF DISCRETE", Blank Schedule Type Limits Name input -- will not be validated.
   ** Warning ** ProcessScheduleInput: Schedule:Constant="ALWAYS ON CONTINUOUS", Blank Schedule Type Limits Name input -- will not be validated.
   ** Warning ** CheckUsedConstructions: There are 28 nominally unused constructions in input.
   **   ~~~   ** For explicit details on each unused construction, use Output:Diagnostics,DisplayExtraWarnings;
   ** Warning ** Calculated design heating load for zone=THERMAL ZONE 1 THERMAL ZONE is zero.
   **   ~~~   ** Check Sizing:Zone and ZoneControl:Thermostat inputs.
   ** Warning ** Calculated design heating load for zone=THERMAL ZONE 2 THERMAL ZONE is zero.
   **   ~~~   ** Check Sizing:Zone and ZoneControl:Thermostat inputs.
   ** Warning ** Calculated design heating load for zone=THERMAL ZONE 3 THERMAL ZONE is zero.
   **   ~~~   ** Check Sizing:Zone and ZoneControl:Thermostat inputs.
   ** Warning ** Calculated design heating load for zone=THERMAL ZONE 4 THERMAL ZONE is zero.
   **   ~~~   ** Check Sizing:Zone and ZoneControl:Thermostat inputs.
   ** Warning ** Calculated design heating load for zone=THERMAL ZONE 5 THERMAL ZONE is zero.
   **   ~~~   ** Check Sizing:Zone and ZoneControl:Thermostat inputs.
   ** Warning ** Calculated design heating load for zone=THERMAL ZONE 6 THERMAL ZONE is zero.
   **   ~~~   ** Check Sizing:Zone and ZoneControl:Thermostat inputs.
   ************* Beginning System Sizing Calculations
   ************* Beginning Plant Sizing Calculations
   ** Warning ** GetElectricEIRChillerInput: Chiller:Electric:EIR="CHILLER - WATER COOLED"
   **   ~~~   ** Adding OutdoorAir:Node=CHILLER - WATER COOLED INLET NODE FOR CONDENSER
   ************* Testing Individual Branch Integrity
   ************* All Branches passed integrity testing
   ************* Testing Individual Supply Air Path Integrity
   ************* All Supply Air Paths passed integrity testing
   ************* Testing Individual Return Air Path Integrity
   ************* All Return Air Paths passed integrity testing
   ************* No node connection errors were found.
   ************* Beginning Simulation
   ** Warning ** ElectricEIRChillerModel - CHILLER:ELECTRIC:EIR "CHILLER - WATER COOLED" - Air Cooled Condenser Inlet Temperature below 0C.
   **   ~~~   ** ... Outdoor Dry-bulb Condition =  -2.04 C. Occurrence info = RUN PERIOD 1, 01/05 10:06 - 10:09
