Program Version,EnergyPlus, Version 8.8.0-7c3bbe4830, YMD=2019.08.29 16:49,IDD_Version 8.8.0
   ** Warning ** Timestep: Requested number (1) cannot be used when Conduction Finite Difference algorithm is selected.
   **   ~~~   ** ...Timestep is set to 20.
   ************* Beginning Zone Sizing Calculations
   ** Warning ** ProcessScheduleInput: Schedule:Compact="SCHEDULEOSCSLABAVERAGESURFACETEMP", Schedule Type Limits Name="TEMPERATURE" not found -- will not be validated
   ** Warning ** ProcessScheduleInput: Schedule:Compact="SCHEDULEOSCSLABPERIMETERTEMP", Schedule Type Limits Name="TEMPERATURE" not found -- will not be validated
   ** Warning ** ProcessScheduleInput: Schedule:Compact="SCHEDULEOSCSLABCORETEMP", Schedule Type Limits Name="TEMPERATURE" not found -- will not be validated
   ** Warning ** ProcessScheduleInput: Schedule:Constant="{0DDF52CE-8B62-47BB-A700-AC9A9331CE67}", Blank Schedule Type Limits Name input -- will not be validated.
   ** Warning ** ProcessScheduleInput: Schedule:Constant="{ADD9A700-76C5-42E4-BEC8-60B4684847F7}", Blank Schedule Type Limits Name input -- will not be validated.
   ** Warning ** ProcessScheduleInput: Schedule:Constant="ALWAYS OFF DISCRETE", Blank Schedule Type Limits Name input -- will not be validated.
   ** Warning ** ProcessScheduleInput: Schedule:Constant="ALWAYS ON CONTINUOUS", Blank Schedule Type Limits Name input -- will not be validated.
   ** Warning ** CheckUsedConstructions: There are 28 nominally unused constructions in input.
   **   ~~~   ** For explicit details on each unused construction, use Output:Diagnostics,DisplayExtraWarnings;
   ************* Beginning System Sizing Calculations
   ************* Beginning Plant Sizing Calculations
   ** Warning ** GetElectricEIRChillerInput: Chiller:Electric:EIR="CHILLER - WATER COOLED"
   **   ~~~   ** Adding OutdoorAir:Node=CHILLER - WATER COOLED INLET NODE FOR CONDENSER
   ************* Testing Individual Branch Integrity
   ************* All Branches passed integrity testing
   ************* Testing Individual Supply Air Path Integrity
   ************* All Supply Air Paths passed integrity testing
   ************* Testing Individual Return Air Path Integrity
   ************* All Return Air Paths passed integrity testing
   ************* No node connection errors were found.
   ************* Beginning Simulation
   ** Warning ** The resource referenced by LifeCycleCost:UsePriceEscalation= "U.S. AVG  COMMERCIAL-ELECTRICITY" has no energy cost. 
   **   ~~~   ** ... It is likely that the wrong resource is used. The resource should match the meter used in Utility:Tariff.
   ** Warning ** The resource referenced by LifeCycleCost:UsePriceEscalation= "U.S. AVG  COMMERCIAL-DISTILLATE OIL" has no energy cost. 
   **   ~~~   ** ... It is likely that the wrong resource is used. The resource should match the meter used in Utility:Tariff.
   ** Warning ** The resource referenced by LifeCycleCost:UsePriceEscalation= "U.S. AVG  COMMERCIAL-RESIDUAL OIL" has no energy cost. 
   **   ~~~   ** ... It is likely that the wrong resource is used. The resource should match the meter used in Utility:Tariff.
   ** Warning ** The resource referenced by LifeCycleCost:UsePriceEscalation= "U.S. AVG  COMMERCIAL-NATURAL GAS" has no energy cost. 
   **   ~~~   ** ... It is likely that the wrong resource is used. The resource should match the meter used in Utility:Tariff.
   ** Warning ** The resource referenced by LifeCycleCost:UsePriceEscalation= "U.S. AVG  COMMERCIAL-COAL" has no energy cost. 
   **   ~~~   ** ... It is likely that the wrong resource is used. The resource should match the meter used in Utility:Tariff.
   ************* Simulation Error Summary *************
   ************* There are 153 unused schedules in input.
   ************* There are 153 unused week schedules in input.
   ************* There are 467 unused day schedules in input.
   ************* Use Output:Diagnostics,DisplayUnusedSchedules; to see them.
   *************
   ************* ===== Final Error Summary =====
   ************* The following error categories occurred.  Consider correcting or noting.
   ************* Nominally Unused Constructions
   ************* ..The nominally unused constructions warning is provided to alert you to potential conditions that can cause
   ************* ..extra time during simulation. Each construction is calculated by the algorithm indicated in the HeatBalanceAlgorithm
   ************* ..object. You may remove the constructions indicated (when you use the DisplayExtraWarnings option).
   *************
   ************* EnergyPlus Warmup Error Summary. During Warmup: 0 Warning; 0 Severe Errors.
   ************* EnergyPlus Sizing Error Summary. During Sizing: 8 Warning; 0 Severe Errors.
   ************* EnergyPlus Completed Successfully-- 15 Warning; 0 Severe Errors; Elapsed Time=00hr 00min 32.58sec
