Program Version,EnergyPlus, Version 9.1.0-08d2e308bb, YMD=2020.02.05 01:02,
   ** Severe  ** <root>[Fan:ConstantVolume][Fan Constant Volume 1][fan_total_efficiency] - "1.000179" - Expected number less than or equal to 1.000000
   **  Fatal  ** Errors occurred on processing input file. Preceding condition(s) cause termination.
   ...Summary of Errors that led to program termination:
   ..... Reference severe error count=1
   ..... Last severe error=<root>[Fan:ConstantVolume][Fan Constant Volume 1][fan_total_efficiency] - "1.000179" - Expected number less than or equal to 1.000000
   ************* Warning:  Node connection errors not checked - most system input has not been read (see previous warning).
   ************* Fatal error -- final processing.  Program exited before simulations began.  See previous error messages.
   ************* EnergyPlus Warmup Error Summary. During Warmup: 0 Warning; 0 Severe Errors.
   ************* EnergyPlus Sizing Error Summary. During Sizing: 0 Warning; 0 Severe Errors.
   ************* EnergyPlus Terminated--Fatal Error Detected. 0 Warning; 1 Severe Errors; Elapsed Time=00hr 00min  0.33sec
