Program Version,EnergyPlus, Version 9.2.0-921312fa1d, YMD=2020.01.15 16:48
! <Version>, Version ID
 Version, 9.2
! <Timesteps per Hour>, #TimeSteps, Minutes per TimeStep {minutes}
 Timesteps per Hour,  1, 60
! <System Convergence Limits>, Minimum System TimeStep {minutes}, Max HVAC Iterations, Minimum Plant Iterations, Maximum Plant Iterations
 System Convergence Limits, 1, 20, 2, 8
! <Simulation Control>, Do Zone Sizing, Do System Sizing, Do Plant Sizing, Do Design Days, Do Weather Simulation, Do HVAC Sizing Simulation
 Simulation Control, Yes, Yes, Yes, Yes, Yes, No
! <Output Reporting Tolerances>, Tolerance for Time Heating Setpoint Not Met, Tolerance for Zone Cooling Setpoint Not Met Time
 Output Reporting Tolerances, 0.200, 0.200, 
! <Site:GroundTemperature:BuildingSurface>,Jan{C},Feb{C},Mar{C},Apr{C},May{C},Jun{C},Jul{C},Aug{C},Sep{C},Oct{C},Nov{C},Dec{C}
 Site:GroundTemperature:BuildingSurface,  19.55,  19.54,  19.57,  19.74,  19.90,  21.95,  22.52,  22.70,  22.69,  20.60,  20.02,  19.72
! <Site:GroundTemperature:FCfactorMethod>,Jan{C},Feb{C},Mar{C},Apr{C},May{C},Jun{C},Jul{C},Aug{C},Sep{C},Oct{C},Nov{C},Dec{C}
 Site:GroundTemperature:FCfactorMethod,  10.83,   7.34,   6.39,   7.21,  11.92,  17.20,  22.17,  25.77,  26.82,  25.13,  21.06,  15.93
! <Site:GroundTemperature:Shallow>,Jan{C},Feb{C},Mar{C},Apr{C},May{C},Jun{C},Jul{C},Aug{C},Sep{C},Oct{C},Nov{C},Dec{C}
 Site:GroundTemperature:Shallow,  13.00,  13.00,  13.00,  13.00,  13.00,  13.00,  13.00,  13.00,  13.00,  13.00,  13.00,  13.00
! <Site:GroundTemperature:Deep>,Jan{C},Feb{C},Mar{C},Apr{C},May{C},Jun{C},Jul{C},Aug{C},Sep{C},Oct{C},Nov{C},Dec{C}
 Site:GroundTemperature:Deep,  16.00,  16.00,  16.00,  16.00,  16.00,  16.00,  16.00,  16.00,  16.00,  16.00,  16.00,  16.00
! <Site:GroundReflectance>,Jan{dimensionless},Feb{dimensionless},Mar{dimensionless},Apr{dimensionless},May{dimensionless},Jun{dimensionless},Jul{dimensionless},Aug{dimensionless},Sep{dimensionless},Oct{dimensionless},Nov{dimensionless},Dec{dimensionless}
 Site:GroundReflectance,  0.20,  0.20,  0.20,  0.20,  0.20,  0.20,  0.20,  0.20,  0.20,  0.20,  0.20,  0.20
! <Site:GroundReflectance:SnowModifier>, Normal, Daylighting {dimensionless}
 Site:GroundReflectance:SnowModifier,   1.000,   1.000
! <Site:GroundReflectance:Snow>,Jan{dimensionless},Feb{dimensionless},Mar{dimensionless},Apr{dimensionless},May{dimensionless},Jun{dimensionless},Jul{dimensionless},Aug{dimensionless},Sep{dimensionless},Oct{dimensionless},Nov{dimensionless},Dec{dimensionless}
 Site:GroundReflectance:Snow,  0.20,  0.20,  0.20,  0.20,  0.20,  0.20,  0.20,  0.20,  0.20,  0.20,  0.20,  0.20
! <Site:GroundReflectance:Snow:Daylighting>,Jan{dimensionless},Feb{dimensionless},Mar{dimensionless},Apr{dimensionless},May{dimensionless},Jun{dimensionless},Jul{dimensionless},Aug{dimensionless},Sep{dimensionless},Oct{dimensionless},Nov{dimensionless},Dec{dimensionless}
 Site:GroundReflectance:Snow:Daylighting,  0.20,  0.20,  0.20,  0.20,  0.20,  0.20,  0.20,  0.20,  0.20,  0.20,  0.20,  0.20
! <Environment:Weather Station>,Wind Sensor Height Above Ground {m},Wind Speed Profile Exponent {},Wind Speed Profile Boundary Layer Thickness {m},Air Temperature Sensor Height Above Ground {m},Wind Speed Modifier Coefficient-Internal,Temperature Modifier Coefficient-Internal
Environment:Weather Station,10.000,0.140,270.000,1.500,1.586,9.750E-003
! <Site:Location>, Location Name, Latitude {N+/S- Deg}, Longitude {E+/W- Deg},  Time Zone Number {GMT+/-}, Elevation {m},  Standard Pressure at Elevation {Pa}, Standard RhoAir at Elevation
Site:Location,Atlanta Hartsfield Intl Ap GA USA TMY3 WMO#=722190,33.63,-84.43,-5.00,308.00,97679,1.1610
! <Site Water Mains Temperature Information>,Calculation Method{},Water Mains Temperature Schedule Name{},Annual Average Outdoor Air Temperature{C},Maximum Difference In Monthly Average Outdoor Air Temperatures{deltaC},Fixed Default Water Mains Temperature{C}
Site Water Mains Temperature Information,Correlation,NA,9.23,11.60,NA
! <Building Information>, Building Name,North Axis {deg},Terrain,  Loads Convergence Tolerance Value,Temperature Convergence Tolerance Value,  Solar Distribution,Maximum Number of Warmup Days,Minimum Number of Warmup Days
 Building Information,Small Office,0.000,City,4.00000E-002,0.20000,FullInteriorAndExterior,25,6
! <Inside Convection Algorithm>, Algorithm {Simple | TARP | CeilingDiffuser | AdaptiveConvectionAlgorithm}
Inside Convection Algorithm,TARP
! <Outside Convection Algorithm>, Algorithm {SimpleCombined | TARP | MoWitt | DOE-2 | AdaptiveConvectionAlgorithm}
Outside Convection Algorithm,TARP
! <Sky Radiance Distribution>, Value {Anisotropic}
Sky Radiance Distribution,Anisotropic
! <Zone Air Solution Algorithm>, Value {ThirdOrderBackwardDifference | AnalyticalSolution | EulerMethod}
 Zone Air Solution Algorithm, ThirdOrderBackwardDifference
! <Zone Air Carbon Dioxide Balance Simulation>, Simulation {Yes/No}, Carbon Dioxide Concentration
 Zone Air Carbon Dioxide Balance Simulation, No,N/A
! <Zone Air Generic Contaminant Balance Simulation>, Simulation {Yes/No}, Generic Contaminant Concentration
 Zone Air Generic Contaminant Balance Simulation, No,N/A
! <Zone Air Mass Flow Balance Simulation>, Enforce Mass Balance, Adjust Zone Mixing, Adjust Zone Infiltration {AddInfiltration | AdjustInfiltration | None}, Infiltration Zones {MixingSourceZonesOnly | AllZones}
 Zone Air Mass Flow Balance Simulation, No,N/A,N/A,N/A
! <HVACSystemRootFindingAlgorithm>, Value {RegulaFalsi | Bisection | BisectionThenRegulaFalsi | RegulaFalsiThenBisection}
 HVACSystemRootFindingAlgorithm, RegulaFalsi
! <Environment:Site Atmospheric Variation>,Wind Speed Profile Exponent {},Wind Speed Profile Boundary Layer Thickness {m},Air Temperature Gradient Coefficient {K/m}
Environment:Site Atmospheric Variation,0.330,460.000,6.500000E-003
! <Surface Geometry>,Starting Corner,Vertex Input Direction,Coordinate System,Daylight Reference Point Coordinate System,Rectangular (Simple) Surface Coordinate System
 Surface Geometry,UpperLeftCorner,Counterclockwise,RelativeCoordinateSystem,RelativeCoordinateSystem,RelativeToZoneOrigin
! <Surface Heat Transfer Algorithm>, Value {CTF - ConductionTransferFunction | EMPD - MoisturePenetrationDepthConductionTransferFunction | CondFD - ConductionFiniteDifference | HAMT - CombinedHeatAndMoistureFiniteElement} - Description,Inside Surface Max Temperature Limit{C}, Surface Convection Coefficient Lower Limit {W/m2-K}, Surface Convection Coefficient Upper Limit {W/m2-K}
Surface Heat Transfer Algorithm, CTF - ConductionTransferFunction,200,0.10,1000.0
! <Shading Summary>, Number of Fixed Detached Shades, Number of Building Detached Shades, Number of Attached Shades
 Shading Summary,0,0,0
! <Zone Summary>, Number of Zones, Number of Zone Surfaces, Number of SubSurfaces
 Zone Summary,6,71,23
! <Zone Information>,Zone Name,North Axis {deg},Origin X-Coordinate {m},Origin Y-Coordinate {m},Origin Z-Coordinate {m},Centroid X-Coordinate {m},Centroid Y-Coordinate {m},Centroid Z-Coordinate {m},Type,Zone Multiplier,Zone List Multiplier,Minimum X {m},Maximum X {m},Minimum Y {m},Maximum Y {m},Minimum Z {m},Maximum Z {m},Ceiling Height {m},Volume {m3},Zone Inside Convection Algorithm {Simple-Detailed-CeilingDiffuser-TrombeWall},Zone Outside Convection Algorithm {Simple-Detailed-Tarp-MoWitt-DOE-2-BLAST}, Floor Area {m2},Exterior Gross Wall Area {m2},Exterior Net Wall Area {m2},Exterior Window Area {m2}, Number of Surfaces, Number of SubSurfaces, Number of Shading SubSurfaces,  Part of Total Building Area
 Zone Information, CORE_ZN,0.0,0.00,0.00,0.00,13.85,9.23,1.53,1,1,1,5.00,22.69,5.00,13.46,0.00,3.05,3.05,456.46,TARP,TARP,149.66,0.00,0.00,0.00,6,0,0,Yes
 Zone Information, PERIMETER_ZN_1,0.0,0.00,0.00,0.00,13.85,2.21,1.53,1,1,1,0.00,27.69,0.00,5.00,0.00,3.05,3.05,346.02,TARP,TARP,113.45,84.45,63.82,20.64,6,7,0,Yes
 Zone Information, PERIMETER_ZN_2,0.0,0.00,0.00,0.00,25.64,9.23,1.53,1,1,1,22.69,27.69,0.00,18.46,0.00,3.05,3.05,205.27,TARP,TARP,67.30,56.30,45.15,11.16,6,4,0,Yes
 Zone Information, PERIMETER_ZN_3,0.0,0.00,0.00,0.00,13.85,16.25,1.53,1,1,1,0.00,27.69,13.46,18.46,0.00,3.05,3.05,346.02,TARP,TARP,113.45,84.45,63.82,16.73,6,8,0,Yes
 Zone Information, PERIMETER_ZN_4,0.0,0.00,0.00,0.00,2.05,9.23,1.53,1,1,1,0.00,5.00,0.00,18.46,0.00,3.05,3.05,205.27,TARP,TARP,67.30,56.30,45.15,11.16,6,4,0,Yes
 Zone Information, ATTIC,0.0,0.00,0.00,0.00,13.85,9.23,3.70,1,1,1,-0.60,28.29,-0.60,19.06,3.05,6.33,1.64,720.19,TARP,TARP,567.98,0.00,0.00,0.00,13,0,0,No
! <Zone Internal Gains Nominal>,Zone Name, Floor Area {m2},# Occupants,Area per Occupant {m2/person},Occupant per Area {person/m2},Interior Lighting {W/m2},Electric Load {W/m2},Gas Load {W/m2},Other Load {W/m2},Hot Water Eq {W/m2},Steam Equipment {W/m2},Sum Loads per Area {W/m2},Outdoor Controlled Baseboard Heat
 Zone Internal Gains Nominal, CORE_ZN,149.66,9.0,16.588,6.028E-002,10.764,6.780,0.000,0.000,0.000,0.000,17.544,No
 Zone Internal Gains Nominal, PERIMETER_ZN_1,113.45,6.8,16.588,6.028E-002,10.764,6.780,0.000,0.000,0.000,0.000,17.544,No
 Zone Internal Gains Nominal, PERIMETER_ZN_2,67.30,4.1,16.588,6.028E-002,10.764,6.780,0.000,0.000,0.000,0.000,17.544,No
 Zone Internal Gains Nominal, PERIMETER_ZN_3,113.45,6.8,16.588,6.028E-002,10.764,6.780,0.000,0.000,0.000,0.000,17.544,No
 Zone Internal Gains Nominal, PERIMETER_ZN_4,67.30,4.1,16.588,6.028E-002,10.764,6.780,0.000,0.000,0.000,0.000,17.544,No
 Zone Internal Gains Nominal, ATTIC,567.98,0.0,N/A,0.000,0.000,0.000,0.000,0.000,0.000,0.000,0.000,No
! <People Internal Gains Nominal>,Name,Schedule Name,Zone Name,Zone Floor Area {m2},# Zone Occupants,Number of People {},People/Floor Area {person/m2},Floor Area per person {m2/person},Fraction Radiant,Fraction Convected,Sensible Fraction Calculation,Activity level,ASHRAE 55 Warnings,Carbon Dioxide Generation Rate,Nominal Minimum Number of People,Nominal Maximum Number of People
 People Internal Gains Nominal, CORE_ZN,BLDG_OCC_SCH,CORE_ZN,149.66,9.0,9.0,6.028E-002,16.588,0.300,0.700,AutoCalculate,ACTIVITY_SCH,No,3.8200E-008,0,9
 People Internal Gains Nominal, PERIMETER_ZN_1,BLDG_OCC_SCH,PERIMETER_ZN_1,113.45,6.8,6.8,6.028E-002,16.588,0.300,0.700,AutoCalculate,ACTIVITY_SCH,No,3.8200E-008,0,7
 People Internal Gains Nominal, PERIMETER_ZN_2,BLDG_OCC_SCH,PERIMETER_ZN_2,67.30,4.1,4.1,6.028E-002,16.588,0.300,0.700,AutoCalculate,ACTIVITY_SCH,No,3.8200E-008,0,4
 People Internal Gains Nominal, PERIMETER_ZN_3,BLDG_OCC_SCH,PERIMETER_ZN_3,113.45,6.8,6.8,6.028E-002,16.588,0.300,0.700,AutoCalculate,ACTIVITY_SCH,No,3.8200E-008,0,7
 People Internal Gains Nominal, PERIMETER_ZN_4,BLDG_OCC_SCH,PERIMETER_ZN_4,67.30,4.1,4.1,6.028E-002,16.588,0.300,0.700,AutoCalculate,ACTIVITY_SCH,No,3.8200E-008,0,4
! <Lights Internal Gains Nominal>,Name,Schedule Name,Zone Name,Zone Floor Area {m2},# Zone Occupants,Lighting Level {W},Lights/Floor Area {W/m2},Lights per person {W/person},Fraction Return Air,Fraction Radiant,Fraction Short Wave,Fraction Convected,Fraction Replaceable,End-Use Category,Nominal Minimum Lighting Level {W},Nominal Maximum Lighting Level {W}
 Lights Internal Gains Nominal, CORE_ZN_LIGHTS,BLDG_LIGHT_SCH,CORE_ZN,149.66,9.0,1610.899,10.764,178.553,0.000,0.700,0.200,0.100,1.000,General,0.000,1610.899
 Lights Internal Gains Nominal, PERIMETER_ZN_1_LIGHTS,BLDG_LIGHT_SCH,PERIMETER_ZN_1,113.45,6.8,1221.166,10.764,178.553,0.000,0.700,0.200,0.100,1.000,General,0.000,1221.166
 Lights Internal Gains Nominal, PERIMETER_ZN_2_LIGHTS,BLDG_LIGHT_SCH,PERIMETER_ZN_2,67.30,4.1,724.411,10.764,178.553,0.000,0.700,0.200,0.100,1.000,General,0.000,724.411
 Lights Internal Gains Nominal, PERIMETER_ZN_3_LIGHTS,BLDG_LIGHT_SCH,PERIMETER_ZN_3,113.45,6.8,1221.166,10.764,178.553,0.000,0.700,0.200,0.100,1.000,General,0.000,1221.166
 Lights Internal Gains Nominal, PERIMETER_ZN_4_LIGHTS,BLDG_LIGHT_SCH,PERIMETER_ZN_4,67.30,4.1,724.411,10.764,178.553,0.000,0.700,0.200,0.100,1.000,General,0.000,724.411
! <ElectricEquipment Internal Gains Nominal>,Name,Schedule Name,Zone Name,Zone Floor Area {m2},# Zone Occupants,Equipment Level {W},Equipment/Floor Area {W/m2},Equipment per person {W/person},Fraction Latent,Fraction Radiant,Fraction Lost,Fraction Convected,End-Use SubCategory,Nominal Minimum Equipment Level {W},Nominal Maximum Equipment Level {W}
 ElectricEquipment Internal Gains Nominal, CORE_ZN_MISCPLUG_EQUIP,BLDG_EQUIP_SCH,CORE_ZN,149.66,9.0,1014.677,6.780,112.467,0.000,0.000,0.000,1.000,General,0.000,1014.677
 ElectricEquipment Internal Gains Nominal, PERIMETER_ZN_1_MISCPLUG_EQUIP,BLDG_EQUIP_SCH,PERIMETER_ZN_1,113.45,6.8,769.191,6.780,112.467,0.000,0.000,0.000,1.000,General,0.000,769.191
 ElectricEquipment Internal Gains Nominal, PERIMETER_ZN_2_MISCPLUG_EQUIP,BLDG_EQUIP_SCH,PERIMETER_ZN_2,67.30,4.1,456.294,6.780,112.467,0.000,0.000,0.000,1.000,General,0.000,456.294
 ElectricEquipment Internal Gains Nominal, PERIMETER_ZN_3_MISCPLUG_EQUIP,BLDG_EQUIP_SCH,PERIMETER_ZN_3,113.45,6.8,769.191,6.780,112.467,0.000,0.000,0.000,1.000,General,0.000,769.191
 ElectricEquipment Internal Gains Nominal, PERIMETER_ZN_4_MISCPLUG_EQUIP,BLDG_EQUIP_SCH,PERIMETER_ZN_4,67.30,4.1,456.294,6.780,112.467,0.000,0.000,0.000,1.000,General,0.000,456.294
! <Shadowing/Sun Position Calculations Annual Simulations>, Calculation Method, Value {days}, Allowable Number Figures in Shadow Overlap {}, Polygon Clipping Algorithm, Sky Diffuse Modeling Algorithm, External Shading Calculation Method, Output External Shading Calculation Results, Disable Self-Shading Within Shading Zone Groups, Disable Self-Shading From Shading Zone Groups to Other Zones
Shadowing/Sun Position Calculations Annual Simulations,AverageOverDaysInFrequency,30,15000,SutherlandHodgman,SimpleSkyDiffuseModeling,InternalCalculation,No,No,No
! <Water Heater Information>,Type,Name,Volume {m3},Maximum Capacity {W},Standard Rated Recovery Efficiency, Standard Rated Energy Factor
! <ZoneInfiltration Airflow Stats Nominal>,Name,Schedule Name,Zone Name, Zone Floor Area {m2}, # Zone Occupants,Design Volume Flow Rate {m3/s},Volume Flow Rate/Floor Area {m3/s-m2},Volume Flow Rate/Exterior Surface Area {m3/s-m2},ACH - Air Changes per Hour,Equation A - Constant Term Coefficient {},Equation B - Temperature Term Coefficient {1/C},Equation C - Velocity Term Coefficient {s/m}, Equation D - Velocity Squared Term Coefficient {s2/m2}
 ZoneInfiltration Airflow Stats Nominal, PERIMETER_ZN_1_INFILTRATION,INFIL_QUARTER_ON_SCH,PERIMETER_ZN_1,113.45,6.8,8.649E-002,7.624E-004,1.024E-003,0.900,0.000,0.000,0.224,0.000
 ZoneInfiltration Airflow Stats Nominal, PERIMETER_ZN_1_DOOR_INFILTRATION,INFIL_DOOR_OPENING_SCH,PERIMETER_ZN_1,113.45,6.8,0.130,1.144E-003,1.537E-003,1.350,1.000,0.000,0.000,0.000
 ZoneInfiltration Airflow Stats Nominal, PERIMETER_ZN_2_INFILTRATION,INFIL_QUARTER_ON_SCH,PERIMETER_ZN_2,67.30,4.1,5.766E-002,8.568E-004,1.024E-003,1.011,0.000,0.000,0.224,0.000
 ZoneInfiltration Airflow Stats Nominal, PERIMETER_ZN_3_INFILTRATION,INFIL_QUARTER_ON_SCH,PERIMETER_ZN_3,113.45,6.8,8.649E-002,7.624E-004,9.789E-004,0.900,0.000,0.000,0.224,0.000
 ZoneInfiltration Airflow Stats Nominal, PERIMETER_ZN_4_INFILTRATION,INFIL_QUARTER_ON_SCH,PERIMETER_ZN_4,67.30,4.1,5.766E-002,8.568E-004,1.024E-003,1.011,0.000,0.000,0.224,0.000
 ZoneInfiltration Airflow Stats Nominal, ATTIC_INFILTRATION,ALWAYS_ON,ATTIC,567.98,0.0,0.200,3.523E-004,3.052E-004,1.000,1.000,0.000,0.000,0.000
! <AirFlow Model>, Simple
 AirFlow Model, Simple
! <RoomAir Model>, Zone Name, Mixing/Mundt/UCSDDV/UCSDCV/UCSDUFI/UCSDUFE/User Defined
RoomAir Model,CORE_ZN,Mixing/Well-Stirred
RoomAir Model,PERIMETER_ZN_1,Mixing/Well-Stirred
RoomAir Model,PERIMETER_ZN_2,Mixing/Well-Stirred
RoomAir Model,PERIMETER_ZN_3,Mixing/Well-Stirred
RoomAir Model,PERIMETER_ZN_4,Mixing/Well-Stirred
RoomAir Model,ATTIC,Mixing/Well-Stirred
! <AirflowNetwork Model:Control>, No Multizone or Distribution/Multizone with Distribution/Multizone without Distribution/Multizone with Distribution only during Fan Operation
AirflowNetwork Model:Control,NoMultizoneOrDistribution
! <Zone Volume Capacitance Multiplier>, Sensible Heat Capacity Multiplier, Moisture Capacity Multiplier, Carbon Dioxide Capacity Multiplier, Generic Contaminant Capacity Multiplier
Zone Volume Capacitance Multiplier,   1.000 ,   1.000,   1.000,   1.000
! <Load Timesteps in Zone Design Calculation Averaging Window>, Value
 Load Timesteps in Zone Design Calculation Averaging Window,    6
! <Heating Sizing Factor Information>, Sizing Factor ID, Value
 Heating Sizing Factor Information, Global,   1.2000    
 Heating Sizing Factor Information, Zone CORE_ZN,   1.2000    
 Heating Sizing Factor Information, Zone PERIMETER_ZN_1,   1.2000    
 Heating Sizing Factor Information, Zone PERIMETER_ZN_2,   1.2000    
 Heating Sizing Factor Information, Zone PERIMETER_ZN_3,   1.2000    
 Heating Sizing Factor Information, Zone PERIMETER_ZN_4,   1.2000    
! <Cooling Sizing Factor Information>, Sizing Factor ID, Value
 Cooling Sizing Factor Information, Global,   1.2000    
 Cooling Sizing Factor Information, Zone CORE_ZN,   1.2000    
 Cooling Sizing Factor Information, Zone PERIMETER_ZN_1,   1.2000    
 Cooling Sizing Factor Information, Zone PERIMETER_ZN_2,   1.2000    
 Cooling Sizing Factor Information, Zone PERIMETER_ZN_3,   1.2000    
 Cooling Sizing Factor Information, Zone PERIMETER_ZN_4,   1.2000    
! <Zone Sizing Information>, Zone Name, Load Type, Calc Des Load {W}, User Des Load {W}, Calc Des Air Flow Rate {m3/s}, User Des Air Flow Rate {m3/s}, Design Day Name, Date/Time of Peak, Temperature at Peak {C}, Humidity Ratio at Peak {kgWater/kgDryAir}, Floor Area {m2}, # Occupants, Calc Outdoor Air Flow Rate {m3/s}, Calc DOAS Heat Addition Rate {W}
 Zone Sizing Information, CORE_ZN, Cooling, 3166.11696, 3799.34035, 0.24096, 0.28915, WILLIAM R FAIRCHILD ANN CLG .4% CONDNS DB=>MWB, 8/21 19:00:00, 22.85100, 8.38409E-003, 149.65740, 9.02199, 7.60212E-002, 0.00000
 Zone Sizing Information, CORE_ZN, Heating, 1198.70369, 1438.44443, 5.36018E-002, 7.60212E-002, WILLIAM R FAIRCHILD ANN HTG 99.6% CONDNS DB, 1/21 12:00:00, -4.30000, 2.65759E-003, 149.65740, 9.02199, 7.60212E-002, 0.00000
 Zone Sizing Information, PERIMETER_ZN_1, Cooling, 3390.66980, 4068.80376, 0.25804, 0.30965, WILLIAM R FAIRCHILD ANN CLG .4% CONDNS DB=>MWB, 8/21 18:00:00, 24.21600, 8.38408E-003, 113.45000, 6.83925, 5.76290E-002, 0.00000
 Zone Sizing Information, PERIMETER_ZN_1, Heating, 2691.76499, 3230.11799, 0.12036, 0.14443, WILLIAM R FAIRCHILD ANN HTG 99.6% CONDNS DB, 1/21 07:00:00, -4.30000, 2.65759E-003, 113.45000, 6.83925, 5.76290E-002, 0.00000
 Zone Sizing Information, PERIMETER_ZN_2, Cooling, 2680.77417, 3216.92901, 0.20401, 0.24481, WILLIAM R FAIRCHILD ANN CLG .4% CONDNS DB=>MWB, 8/21 14:00:00, 26.40000, 8.38408E-003, 67.30000, 4.05713, 3.41862E-002, 0.00000
 Zone Sizing Information, PERIMETER_ZN_2, Heating, 1649.27731, 1979.13278, 7.37454E-002, 8.84945E-002, WILLIAM R FAIRCHILD ANN HTG 99.6% CONDNS DB, 1/21 07:00:00, -4.30000, 2.65759E-003, 67.30000, 4.05713, 3.41862E-002, 0.00000
 Zone Sizing Information, PERIMETER_ZN_3, Cooling, 2844.55858, 3413.47029, 0.21648, 0.25978, WILLIAM R FAIRCHILD ANN CLG .4% CONDNS DB=>MWB, 8/21 18:00:00, 24.21600, 8.38408E-003, 113.45000, 6.83925, 5.76290E-002, 0.00000
 Zone Sizing Information, PERIMETER_ZN_3, Heating, 2606.65920, 3127.99104, 0.11655, 0.13986, WILLIAM R FAIRCHILD ANN HTG 99.6% CONDNS DB, 1/21 07:00:00, -4.30000, 2.65759E-003, 113.45000, 6.83925, 5.76290E-002, 0.00000
 Zone Sizing Information, PERIMETER_ZN_4, Cooling, 3090.17166, 3708.20600, 0.23517, 0.28221, WILLIAM R FAIRCHILD ANN CLG .4% CONDNS DB=>MWB, 8/21 20:00:00, 21.85000, 8.38408E-003, 67.30000, 4.05713, 3.41862E-002, 0.00000
 Zone Sizing Information, PERIMETER_ZN_4, Heating, 1640.87452, 1969.04942, 7.33697E-002, 8.80436E-002, WILLIAM R FAIRCHILD ANN HTG 99.6% CONDNS DB, 1/21 07:00:00, -4.30000, 2.65759E-003, 67.30000, 4.05713, 3.41862E-002, 0.00000
! <System Sizing Information>, System Name, Load Type, Peak Load Kind, User Design Capacity, Calc Des Air Flow Rate [m3/s], User Des Air Flow Rate [m3/s], Design Day Name, Date/Time of Peak
 System Sizing Information, PSZ-AC:1, Cooling, Sensible, 3648.53, 0.28915, 0.28915, WILLIAM R FAIRCHILD ANN CLG .4% CONDNS DB=>MWB, 8/21 05:00:00
 System Sizing Information, PSZ-AC:1, Heating, Sensible, 3928.86, 7.60212E-002, 7.60212E-002, WILLIAM R FAIRCHILD ANN HTG 99.6% CONDNS DB, 1/21 01:00:00
 System Sizing Information, PSZ-AC:2, Cooling, Sensible, 4027.87, 0.30965, 0.30965, WILLIAM R FAIRCHILD ANN CLG .4% CONDNS DB=>MWB, 8/21 05:00:00
 System Sizing Information, PSZ-AC:2, Heating, Sensible, 4891.34, 0.14443, 0.14443, WILLIAM R FAIRCHILD ANN HTG 99.6% CONDNS DB, 1/21 07:00:00
 System Sizing Information, PSZ-AC:3, Cooling, Sensible, 3267.31, 0.24481, 0.24481, WILLIAM R FAIRCHILD ANN CLG .4% CONDNS DB=>MWB, 8/21 05:00:00
 System Sizing Information, PSZ-AC:3, Heating, Sensible, 2963.67, 8.84945E-002, 8.84945E-002, WILLIAM R FAIRCHILD ANN HTG 99.6% CONDNS DB, 1/21 07:00:00
 System Sizing Information, PSZ-AC:4, Cooling, Sensible, 3382.67, 0.25978, 0.25978, WILLIAM R FAIRCHILD ANN CLG .4% CONDNS DB=>MWB, 8/21 05:00:00
 System Sizing Information, PSZ-AC:4, Heating, Sensible, 4790.70, 0.13986, 0.13986, WILLIAM R FAIRCHILD ANN HTG 99.6% CONDNS DB, 1/21 07:00:00
 System Sizing Information, PSZ-AC:5, Cooling, Sensible, 3569.54, 0.28221, 0.28221, WILLIAM R FAIRCHILD ANN CLG .4% CONDNS DB=>MWB, 8/21 05:00:00
 System Sizing Information, PSZ-AC:5, Heating, Sensible, 2953.73, 8.80436E-002, 8.80436E-002, WILLIAM R FAIRCHILD ANN HTG 99.6% CONDNS DB, 1/21 07:00:00
! <Component Sizing Information>, Component Type, Component Name, Input Field Description, Value
 Component Sizing Information, AirTerminal:SingleDuct:Uncontrolled, CORE_ZN DIRECT AIR, Design Size Maximum Air Flow Rate [m3/s], 0.28915
 Component Sizing Information, AirTerminal:SingleDuct:Uncontrolled, PERIMETER_ZN_1 DIRECT AIR, Design Size Maximum Air Flow Rate [m3/s], 0.30965
 Component Sizing Information, AirTerminal:SingleDuct:Uncontrolled, PERIMETER_ZN_2 DIRECT AIR, Design Size Maximum Air Flow Rate [m3/s], 0.24481
 Component Sizing Information, AirTerminal:SingleDuct:Uncontrolled, PERIMETER_ZN_3 DIRECT AIR, Design Size Maximum Air Flow Rate [m3/s], 0.25978
 Component Sizing Information, AirTerminal:SingleDuct:Uncontrolled, PERIMETER_ZN_4 DIRECT AIR, Design Size Maximum Air Flow Rate [m3/s], 0.28221
 Component Sizing Information, AirLoopHVAC, PSZ-AC:1, Sum of Air Terminal Maximum Heating Flow Rates [m3/s], 0.28915
 Component Sizing Information, AirLoopHVAC, PSZ-AC:1, Sum of Air Terminal Minimum Heating Flow Rates [m3/s], 0.28915
 Component Sizing Information, AirLoopHVAC, PSZ-AC:1, Sum of Air Terminal Maximum Flow Rates [m3/s], 0.28915
 Component Sizing Information, AirLoopHVAC, PSZ-AC:1, Adjusted Heating Design Air Flow Rate [m3/s], 0.28915
 Component Sizing Information, AirLoopHVAC, PSZ-AC:1, Adjusted Cooling Design Air Flow Rate [m3/s], 0.28915
 Component Sizing Information, AirLoopHVAC, PSZ-AC:1, Adjusted Main Design Air Flow Rate [m3/s], 0.28915
 Component Sizing Information, AirLoopHVAC, PSZ-AC:1, User Heating Air Flow Ratio [], 0.30000
 Component Sizing Information, AirLoopHVAC, PSZ-AC:1, Calculated Heating Air Flow Ratio [], 1.00000
 Component Sizing Information, AirLoopHVAC, PSZ-AC:2, Sum of Air Terminal Maximum Heating Flow Rates [m3/s], 0.30965
 Component Sizing Information, AirLoopHVAC, PSZ-AC:2, Sum of Air Terminal Minimum Heating Flow Rates [m3/s], 0.30965
 Component Sizing Information, AirLoopHVAC, PSZ-AC:2, Sum of Air Terminal Maximum Flow Rates [m3/s], 0.30965
 Component Sizing Information, AirLoopHVAC, PSZ-AC:2, Adjusted Heating Design Air Flow Rate [m3/s], 0.30965
 Component Sizing Information, AirLoopHVAC, PSZ-AC:2, Adjusted Cooling Design Air Flow Rate [m3/s], 0.30965
 Component Sizing Information, AirLoopHVAC, PSZ-AC:2, Adjusted Main Design Air Flow Rate [m3/s], 0.30965
 Component Sizing Information, AirLoopHVAC, PSZ-AC:2, User Heating Air Flow Ratio [], 0.30000
 Component Sizing Information, AirLoopHVAC, PSZ-AC:2, Calculated Heating Air Flow Ratio [], 1.00000
 Component Sizing Information, AirLoopHVAC, PSZ-AC:3, Sum of Air Terminal Maximum Heating Flow Rates [m3/s], 0.24481
 Component Sizing Information, AirLoopHVAC, PSZ-AC:3, Sum of Air Terminal Minimum Heating Flow Rates [m3/s], 0.24481
 Component Sizing Information, AirLoopHVAC, PSZ-AC:3, Sum of Air Terminal Maximum Flow Rates [m3/s], 0.24481
 Component Sizing Information, AirLoopHVAC, PSZ-AC:3, Adjusted Heating Design Air Flow Rate [m3/s], 0.24481
 Component Sizing Information, AirLoopHVAC, PSZ-AC:3, Adjusted Cooling Design Air Flow Rate [m3/s], 0.24481
 Component Sizing Information, AirLoopHVAC, PSZ-AC:3, Adjusted Main Design Air Flow Rate [m3/s], 0.24481
 Component Sizing Information, AirLoopHVAC, PSZ-AC:3, User Heating Air Flow Ratio [], 0.30000
 Component Sizing Information, AirLoopHVAC, PSZ-AC:3, Calculated Heating Air Flow Ratio [], 1.00000
 Component Sizing Information, AirLoopHVAC, PSZ-AC:4, Sum of Air Terminal Maximum Heating Flow Rates [m3/s], 0.25978
 Component Sizing Information, AirLoopHVAC, PSZ-AC:4, Sum of Air Terminal Minimum Heating Flow Rates [m3/s], 0.25978
 Component Sizing Information, AirLoopHVAC, PSZ-AC:4, Sum of Air Terminal Maximum Flow Rates [m3/s], 0.25978
 Component Sizing Information, AirLoopHVAC, PSZ-AC:4, Adjusted Heating Design Air Flow Rate [m3/s], 0.25978
 Component Sizing Information, AirLoopHVAC, PSZ-AC:4, Adjusted Cooling Design Air Flow Rate [m3/s], 0.25978
 Component Sizing Information, AirLoopHVAC, PSZ-AC:4, Adjusted Main Design Air Flow Rate [m3/s], 0.25978
 Component Sizing Information, AirLoopHVAC, PSZ-AC:4, User Heating Air Flow Ratio [], 0.30000
 Component Sizing Information, AirLoopHVAC, PSZ-AC:4, Calculated Heating Air Flow Ratio [], 1.00000
 Component Sizing Information, AirLoopHVAC, PSZ-AC:5, Sum of Air Terminal Maximum Heating Flow Rates [m3/s], 0.28221
 Component Sizing Information, AirLoopHVAC, PSZ-AC:5, Sum of Air Terminal Minimum Heating Flow Rates [m3/s], 0.28221
 Component Sizing Information, AirLoopHVAC, PSZ-AC:5, Sum of Air Terminal Maximum Flow Rates [m3/s], 0.28221
 Component Sizing Information, AirLoopHVAC, PSZ-AC:5, Adjusted Heating Design Air Flow Rate [m3/s], 0.28221
 Component Sizing Information, AirLoopHVAC, PSZ-AC:5, Adjusted Cooling Design Air Flow Rate [m3/s], 0.28221
 Component Sizing Information, AirLoopHVAC, PSZ-AC:5, Adjusted Main Design Air Flow Rate [m3/s], 0.28221
 Component Sizing Information, AirLoopHVAC, PSZ-AC:5, User Heating Air Flow Ratio [], 0.30000
 Component Sizing Information, AirLoopHVAC, PSZ-AC:5, Calculated Heating Air Flow Ratio [], 1.00000
 Component Sizing Information, AirLoopHVAC, PSZ-AC:1, Design Supply Air Flow Rate [m3/s], 0.28915
 Component Sizing Information, AirLoopHVAC, PSZ-AC:2, Design Supply Air Flow Rate [m3/s], 0.30965
 Component Sizing Information, AirLoopHVAC, PSZ-AC:3, Design Supply Air Flow Rate [m3/s], 0.24481
 Component Sizing Information, AirLoopHVAC, PSZ-AC:4, Design Supply Air Flow Rate [m3/s], 0.25978
 Component Sizing Information, AirLoopHVAC, PSZ-AC:5, Design Supply Air Flow Rate [m3/s], 0.28221
 Component Sizing Information, Controller:OutdoorAir, PSZ-AC:1_OA_CONTROLLER, Maximum Outdoor Air Flow Rate [m3/s], 0.28915
 Component Sizing Information, Controller:OutdoorAir, PSZ-AC:1_OA_CONTROLLER, Minimum Outdoor Air Flow Rate [m3/s], 7.60212E-002
 Component Sizing Information, Coil:Cooling:DX:SingleSpeed, PSZ-AC:1 HEAT PUMP DX COOLING COIL, Design Size Rated Air Flow Rate [m3/s], 0.28915
 Component Sizing Information, Coil:Cooling:DX:SingleSpeed, PSZ-AC:1 HEAT PUMP DX COOLING COIL, Design Size Gross Rated Total Cooling Capacity [W], 4786.41325
 Component Sizing Information, Coil:Cooling:DX:SingleSpeed, PSZ-AC:1 HEAT PUMP DX COOLING COIL, Design Size Gross Rated Sensible Heat Ratio, 0.80066
! <DX Cooling Coil Standard Rating Information>, Component Type, Component Name, Standard Rating (Net) Cooling Capacity {W}, Standard Rated Net COP {W/W}, EER {Btu/W-h}, SEER {Btu/W-h}, IEER {Btu/W-h}
 DX Cooling Coil Standard Rating Information, Coil:Cooling:DX:SingleSpeed, PSZ-AC:1 HEAT PUMP DX COOLING COIL, 4559.8, 2.61, 8.92, 9.35, 8.94
 Component Sizing Information, AirLoopHVAC:UnitaryHeatPump:AirToAir, PSZ-AC:1_HEATPUMP, Supply Air Flow Rate [m3/s], 0.28915
 Component Sizing Information, AirLoopHVAC:UnitaryHeatPump:AirToAir, PSZ-AC:1_HEATPUMP, Supply Air Flow Rate During Heating Operation [m3/s], 0.28915
 Component Sizing Information, AirLoopHVAC:UnitaryHeatPump:AirToAir, PSZ-AC:1_HEATPUMP, Supply Air Flow Rate During Cooling Operation [m3/s], 0.28915
 Component Sizing Information, AirLoopHVAC:UnitaryHeatPump:AirToAir, PSZ-AC:1_HEATPUMP, Supply Air Flow Rate When No Cooling or Heating is Needed [m3/s], 0.28915
 Component Sizing Information, AirLoopHVAC:UnitaryHeatPump:AirToAir, PSZ-AC:1_HEATPUMP, Nominal Heating Capacity [W], 4786.41325
 Component Sizing Information, AirLoopHVAC:UnitaryHeatPump:AirToAir, PSZ-AC:1_HEATPUMP, Nominal Cooling Capacity [W], 4786.41325
 Component Sizing Information, AirLoopHVAC:UnitaryHeatPump:AirToAir, PSZ-AC:1_HEATPUMP, Maximum Supply Air Temperature from Supplemental Heater [C], 40.00000
 Component Sizing Information, AirLoopHVAC:UnitaryHeatPump:AirToAir, PSZ-AC:1_HEATPUMP, Supplemental Heating Coil Nominal Capacity [W], 3928.86105
 Component Sizing Information, AirLoopHVAC:UnitaryHeatPump:AirToAir, PSZ-AC:1_HEATPUMP, Fraction of Supply Air Flow That Goes Through the Controlling Zone, 1.00000
 Component Sizing Information, Fan:OnOff, PSZ-AC:1 FAN, Design Size Maximum Flow Rate [m3/s], 0.28915
 Component Sizing Information, Coil:Heating:DX:SingleSpeed, PSZ-AC:1 HEAT PUMP DX HEATING COIL, Design Size Rated Air Flow Rate [m3/s], 0.28915
 Component Sizing Information, Coil:Heating:DX:SingleSpeed, PSZ-AC:1 HEAT PUMP DX HEATING COIL, Design Size Gross Rated Heating Capacity [W], 4786.41325
! <DX Heating Coil Standard Rating Information>, Component Type, Component Name, High Temperature Heating (net) Rating Capacity {W}, Low Temperature Heating (net) Rating Capacity {W}, HSPF {Btu/W-h}, Region Number
 DX Heating Coil Standard Rating Information, Coil:Heating:DX:SingleSpeed, PSZ-AC:1 HEAT PUMP DX HEATING COIL, 5015.8, 2793.5, 6.72, 4
 Component Sizing Information, Coil:Heating:Fuel, PSZ-AC:1 HEAT PUMP DX SUPP HEATING COIL, Design Size Nominal Capacity [W], 3928.86105
 Component Sizing Information, Controller:OutdoorAir, PSZ-AC:2_OA_CONTROLLER, Maximum Outdoor Air Flow Rate [m3/s], 0.30965
 Component Sizing Information, Controller:OutdoorAir, PSZ-AC:2_OA_CONTROLLER, Minimum Outdoor Air Flow Rate [m3/s], 5.76290E-002
 Component Sizing Information, Coil:Cooling:DX:SingleSpeed, PSZ-AC:2 HEAT PUMP DX COOLING COIL, Design Size Rated Air Flow Rate [m3/s], 0.30965
 Component Sizing Information, Coil:Cooling:DX:SingleSpeed, PSZ-AC:2 HEAT PUMP DX COOLING COIL, Design Size Gross Rated Total Cooling Capacity [W], 5125.86010
 Component Sizing Information, Coil:Cooling:DX:SingleSpeed, PSZ-AC:2 HEAT PUMP DX COOLING COIL, Design Size Gross Rated Sensible Heat Ratio, 0.80066
 DX Cooling Coil Standard Rating Information, Coil:Cooling:DX:SingleSpeed, PSZ-AC:2 HEAT PUMP DX COOLING COIL, 4883.2, 2.61, 8.92, 9.35, 8.94
 Component Sizing Information, AirLoopHVAC:UnitaryHeatPump:AirToAir, PSZ-AC:2_HEATPUMP, Supply Air Flow Rate [m3/s], 0.30965
 Component Sizing Information, AirLoopHVAC:UnitaryHeatPump:AirToAir, PSZ-AC:2_HEATPUMP, Supply Air Flow Rate During Heating Operation [m3/s], 0.30965
 Component Sizing Information, AirLoopHVAC:UnitaryHeatPump:AirToAir, PSZ-AC:2_HEATPUMP, Supply Air Flow Rate During Cooling Operation [m3/s], 0.30965
 Component Sizing Information, AirLoopHVAC:UnitaryHeatPump:AirToAir, PSZ-AC:2_HEATPUMP, Supply Air Flow Rate When No Cooling or Heating is Needed [m3/s], 0.30965
 Component Sizing Information, AirLoopHVAC:UnitaryHeatPump:AirToAir, PSZ-AC:2_HEATPUMP, Nominal Heating Capacity [W], 5125.86010
 Component Sizing Information, AirLoopHVAC:UnitaryHeatPump:AirToAir, PSZ-AC:2_HEATPUMP, Nominal Cooling Capacity [W], 5125.86010
 Component Sizing Information, AirLoopHVAC:UnitaryHeatPump:AirToAir, PSZ-AC:2_HEATPUMP, Maximum Supply Air Temperature from Supplemental Heater [C], 40.00000
 Component Sizing Information, AirLoopHVAC:UnitaryHeatPump:AirToAir, PSZ-AC:2_HEATPUMP, Supplemental Heating Coil Nominal Capacity [W], 4891.33657
 Component Sizing Information, AirLoopHVAC:UnitaryHeatPump:AirToAir, PSZ-AC:2_HEATPUMP, Fraction of Supply Air Flow That Goes Through the Controlling Zone, 1.00000
 Component Sizing Information, Fan:OnOff, PSZ-AC:2 FAN, Design Size Maximum Flow Rate [m3/s], 0.30965
 Component Sizing Information, Coil:Heating:DX:SingleSpeed, PSZ-AC:2 HEAT PUMP DX HEATING COIL, Design Size Rated Air Flow Rate [m3/s], 0.30965
 Component Sizing Information, Coil:Heating:DX:SingleSpeed, PSZ-AC:2 HEAT PUMP DX HEATING COIL, Design Size Gross Rated Heating Capacity [W], 5125.86010
 DX Heating Coil Standard Rating Information, Coil:Heating:DX:SingleSpeed, PSZ-AC:2 HEAT PUMP DX HEATING COIL, 5371.5, 2991.6, 6.74, 4
 Component Sizing Information, Coil:Heating:Fuel, PSZ-AC:2 HEAT PUMP DX SUPP HEATING COIL, Design Size Nominal Capacity [W], 4891.33657
 Component Sizing Information, Controller:OutdoorAir, PSZ-AC:3_OA_CONTROLLER, Maximum Outdoor Air Flow Rate [m3/s], 0.24481
 Component Sizing Information, Controller:OutdoorAir, PSZ-AC:3_OA_CONTROLLER, Minimum Outdoor Air Flow Rate [m3/s], 3.41862E-002
 Component Sizing Information, Coil:Cooling:DX:SingleSpeed, PSZ-AC:3 HEAT PUMP DX COOLING COIL, Design Size Rated Air Flow Rate [m3/s], 0.24481
 Component Sizing Information, Coil:Cooling:DX:SingleSpeed, PSZ-AC:3 HEAT PUMP DX COOLING COIL, Design Size Gross Rated Total Cooling Capacity [W], 4052.53794
 Component Sizing Information, Coil:Cooling:DX:SingleSpeed, PSZ-AC:3 HEAT PUMP DX COOLING COIL, Design Size Gross Rated Sensible Heat Ratio, 0.80066
 DX Cooling Coil Standard Rating Information, Coil:Cooling:DX:SingleSpeed, PSZ-AC:3 HEAT PUMP DX COOLING COIL, 3860.7, 2.61, 8.92, 9.35, 8.94
 Component Sizing Information, AirLoopHVAC:UnitaryHeatPump:AirToAir, PSZ-AC:3_HEATPUMP, Supply Air Flow Rate [m3/s], 0.24481
 Component Sizing Information, AirLoopHVAC:UnitaryHeatPump:AirToAir, PSZ-AC:3_HEATPUMP, Supply Air Flow Rate During Heating Operation [m3/s], 0.24481
 Component Sizing Information, AirLoopHVAC:UnitaryHeatPump:AirToAir, PSZ-AC:3_HEATPUMP, Supply Air Flow Rate During Cooling Operation [m3/s], 0.24481
 Component Sizing Information, AirLoopHVAC:UnitaryHeatPump:AirToAir, PSZ-AC:3_HEATPUMP, Supply Air Flow Rate When No Cooling or Heating is Needed [m3/s], 0.24481
 Component Sizing Information, AirLoopHVAC:UnitaryHeatPump:AirToAir, PSZ-AC:3_HEATPUMP, Nominal Heating Capacity [W], 4052.53794
 Component Sizing Information, AirLoopHVAC:UnitaryHeatPump:AirToAir, PSZ-AC:3_HEATPUMP, Nominal Cooling Capacity [W], 4052.53794
 Component Sizing Information, AirLoopHVAC:UnitaryHeatPump:AirToAir, PSZ-AC:3_HEATPUMP, Maximum Supply Air Temperature from Supplemental Heater [C], 40.00000
 Component Sizing Information, AirLoopHVAC:UnitaryHeatPump:AirToAir, PSZ-AC:3_HEATPUMP, Supplemental Heating Coil Nominal Capacity [W], 2963.66836
 Component Sizing Information, AirLoopHVAC:UnitaryHeatPump:AirToAir, PSZ-AC:3_HEATPUMP, Fraction of Supply Air Flow That Goes Through the Controlling Zone, 1.00000
 Component Sizing Information, Fan:OnOff, PSZ-AC:3 FAN, Design Size Maximum Flow Rate [m3/s], 0.24481
 Component Sizing Information, Coil:Heating:DX:SingleSpeed, PSZ-AC:3 HEAT PUMP DX HEATING COIL, Design Size Rated Air Flow Rate [m3/s], 0.24481
 Component Sizing Information, Coil:Heating:DX:SingleSpeed, PSZ-AC:3 HEAT PUMP DX HEATING COIL, Design Size Gross Rated Heating Capacity [W], 4052.53794
 DX Heating Coil Standard Rating Information, Coil:Heating:DX:SingleSpeed, PSZ-AC:3 HEAT PUMP DX HEATING COIL, 4246.8, 2365.2, 6.73, 4
 Component Sizing Information, Coil:Heating:Fuel, PSZ-AC:3 HEAT PUMP DX SUPP HEATING COIL, Design Size Nominal Capacity [W], 2963.66836
 Component Sizing Information, Controller:OutdoorAir, PSZ-AC:4_OA_CONTROLLER, Maximum Outdoor Air Flow Rate [m3/s], 0.25978
 Component Sizing Information, Controller:OutdoorAir, PSZ-AC:4_OA_CONTROLLER, Minimum Outdoor Air Flow Rate [m3/s], 5.76290E-002
 Component Sizing Information, Coil:Cooling:DX:SingleSpeed, PSZ-AC:4 HEAT PUMP DX COOLING COIL, Design Size Rated Air Flow Rate [m3/s], 0.25978
 Component Sizing Information, Coil:Cooling:DX:SingleSpeed, PSZ-AC:4 HEAT PUMP DX COOLING COIL, Design Size Gross Rated Total Cooling Capacity [W], 4300.28624
 Component Sizing Information, Coil:Cooling:DX:SingleSpeed, PSZ-AC:4 HEAT PUMP DX COOLING COIL, Design Size Gross Rated Sensible Heat Ratio, 0.80066
 DX Cooling Coil Standard Rating Information, Coil:Cooling:DX:SingleSpeed, PSZ-AC:4 HEAT PUMP DX COOLING COIL, 4096.7, 2.61, 8.92, 9.35, 8.94
 Component Sizing Information, AirLoopHVAC:UnitaryHeatPump:AirToAir, PSZ-AC:4_HEATPUMP, Supply Air Flow Rate [m3/s], 0.25978
 Component Sizing Information, AirLoopHVAC:UnitaryHeatPump:AirToAir, PSZ-AC:4_HEATPUMP, Supply Air Flow Rate During Heating Operation [m3/s], 0.25978
 Component Sizing Information, AirLoopHVAC:UnitaryHeatPump:AirToAir, PSZ-AC:4_HEATPUMP, Supply Air Flow Rate During Cooling Operation [m3/s], 0.25978
 Component Sizing Information, AirLoopHVAC:UnitaryHeatPump:AirToAir, PSZ-AC:4_HEATPUMP, Supply Air Flow Rate When No Cooling or Heating is Needed [m3/s], 0.25978
 Component Sizing Information, AirLoopHVAC:UnitaryHeatPump:AirToAir, PSZ-AC:4_HEATPUMP, Nominal Heating Capacity [W], 4300.28624
 Component Sizing Information, AirLoopHVAC:UnitaryHeatPump:AirToAir, PSZ-AC:4_HEATPUMP, Nominal Cooling Capacity [W], 4300.28624
 Component Sizing Information, AirLoopHVAC:UnitaryHeatPump:AirToAir, PSZ-AC:4_HEATPUMP, Maximum Supply Air Temperature from Supplemental Heater [C], 40.00000
 Component Sizing Information, AirLoopHVAC:UnitaryHeatPump:AirToAir, PSZ-AC:4_HEATPUMP, Supplemental Heating Coil Nominal Capacity [W], 4790.69689
 Component Sizing Information, AirLoopHVAC:UnitaryHeatPump:AirToAir, PSZ-AC:4_HEATPUMP, Fraction of Supply Air Flow That Goes Through the Controlling Zone, 1.00000
 Component Sizing Information, Fan:OnOff, PSZ-AC:4 FAN, Design Size Maximum Flow Rate [m3/s], 0.25978
 Component Sizing Information, Coil:Heating:DX:SingleSpeed, PSZ-AC:4 HEAT PUMP DX HEATING COIL, Design Size Rated Air Flow Rate [m3/s], 0.25978
 Component Sizing Information, Coil:Heating:DX:SingleSpeed, PSZ-AC:4 HEAT PUMP DX HEATING COIL, Design Size Gross Rated Heating Capacity [W], 4300.28624
 DX Heating Coil Standard Rating Information, Coil:Heating:DX:SingleSpeed, PSZ-AC:4 HEAT PUMP DX HEATING COIL, 4506.4, 2509.8, 6.73, 4
 Component Sizing Information, Coil:Heating:Fuel, PSZ-AC:4 HEAT PUMP DX SUPP HEATING COIL, Design Size Nominal Capacity [W], 4790.69689
 Component Sizing Information, Controller:OutdoorAir, PSZ-AC:5_OA_CONTROLLER, Maximum Outdoor Air Flow Rate [m3/s], 0.28221
 Component Sizing Information, Controller:OutdoorAir, PSZ-AC:5_OA_CONTROLLER, Minimum Outdoor Air Flow Rate [m3/s], 3.41862E-002
 Component Sizing Information, Coil:Cooling:DX:SingleSpeed, PSZ-AC:5 HEAT PUMP DX COOLING COIL, Design Size Rated Air Flow Rate [m3/s], 0.28221
 Component Sizing Information, Coil:Cooling:DX:SingleSpeed, PSZ-AC:5 HEAT PUMP DX COOLING COIL, Design Size Gross Rated Total Cooling Capacity [W], 4671.53596
 Component Sizing Information, Coil:Cooling:DX:SingleSpeed, PSZ-AC:5 HEAT PUMP DX COOLING COIL, Design Size Gross Rated Sensible Heat Ratio, 0.80066
 DX Cooling Coil Standard Rating Information, Coil:Cooling:DX:SingleSpeed, PSZ-AC:5 HEAT PUMP DX COOLING COIL, 4450.4, 2.61, 8.92, 9.35, 8.94
 Component Sizing Information, AirLoopHVAC:UnitaryHeatPump:AirToAir, PSZ-AC:5_HEATPUMP, Supply Air Flow Rate [m3/s], 0.28221
 Component Sizing Information, AirLoopHVAC:UnitaryHeatPump:AirToAir, PSZ-AC:5_HEATPUMP, Supply Air Flow Rate During Heating Operation [m3/s], 0.28221
 Component Sizing Information, AirLoopHVAC:UnitaryHeatPump:AirToAir, PSZ-AC:5_HEATPUMP, Supply Air Flow Rate During Cooling Operation [m3/s], 0.28221
 Component Sizing Information, AirLoopHVAC:UnitaryHeatPump:AirToAir, PSZ-AC:5_HEATPUMP, Supply Air Flow Rate When No Cooling or Heating is Needed [m3/s], 0.28221
 Component Sizing Information, AirLoopHVAC:UnitaryHeatPump:AirToAir, PSZ-AC:5_HEATPUMP, Nominal Heating Capacity [W], 4671.53596
 Component Sizing Information, AirLoopHVAC:UnitaryHeatPump:AirToAir, PSZ-AC:5_HEATPUMP, Nominal Cooling Capacity [W], 4671.53596
 Component Sizing Information, AirLoopHVAC:UnitaryHeatPump:AirToAir, PSZ-AC:5_HEATPUMP, Maximum Supply Air Temperature from Supplemental Heater [C], 40.00000
 Component Sizing Information, AirLoopHVAC:UnitaryHeatPump:AirToAir, PSZ-AC:5_HEATPUMP, Supplemental Heating Coil Nominal Capacity [W], 2953.73185
 Component Sizing Information, AirLoopHVAC:UnitaryHeatPump:AirToAir, PSZ-AC:5_HEATPUMP, Fraction of Supply Air Flow That Goes Through the Controlling Zone, 1.00000
 Component Sizing Information, Fan:OnOff, PSZ-AC:5 FAN, Design Size Maximum Flow Rate [m3/s], 0.28221
 Component Sizing Information, Coil:Heating:DX:SingleSpeed, PSZ-AC:5 HEAT PUMP DX HEATING COIL, Design Size Rated Air Flow Rate [m3/s], 0.28221
 Component Sizing Information, Coil:Heating:DX:SingleSpeed, PSZ-AC:5 HEAT PUMP DX HEATING COIL, Design Size Gross Rated Heating Capacity [W], 4671.53596
 DX Heating Coil Standard Rating Information, Coil:Heating:DX:SingleSpeed, PSZ-AC:5 HEAT PUMP DX HEATING COIL, 4895.4, 2726.5, 6.73, 4
 Component Sizing Information, Coil:Heating:Fuel, PSZ-AC:5 HEAT PUMP DX SUPP HEATING COIL, Design Size Nominal Capacity [W], 2953.73185
Water Heater Information,WaterHeater:Mixed,SHWSYS1 WATER HEATER,0.1514,11722.8,3.564,0.5171
 Component Sizing Information, PlantLoop, SHWSYS1, Maximum Loop Flow Rate [m3/s], 4.04800E-006
 Component Sizing Information, PlantLoop, SHWSYS1, Plant Loop Volume [m3], 4.85760E-004
 Component Sizing Information, Pump:ConstantSpeed, SHWSYS1 PUMP, Design Flow Rate [m3/s], 4.04800E-006
 Component Sizing Information, Pump:ConstantSpeed, SHWSYS1 PUMP, Design Power Consumption [W], 1.72991E-008
! <Environment>,Environment Name,Environment Type, Start Date, End Date, Start DayOfWeek, Duration {#days}, Source:Start DayOfWeek,  Use Daylight Saving, Use Holidays, Apply Weekend Holiday Rule,  Use Rain Values, Use Snow Values
! <Environment:Special Days>, Special Day Name, Special Day Type, Source, Start Date, Duration {#days}
! <Environment:Daylight Saving>, Daylight Saving Indicator, Source, Start Date, End Date
! <Environment:WarmupDays>, NumberofWarmupDays
Environment,WILLIAM R FAIRCHILD ANN HTG 99.6% CONDNS DB,SizingPeriod:DesignDay,01/21,01/21,WinterDesignDay,1,N/A,N/A,N/A,N/A,N/A,N/A
Environment:Daylight Saving,No,SizingPeriod:DesignDay
! <Environment:Design Day Data>, Max Dry-Bulb Temp {C}, Temp Range {dC}, Temp Range Ind Type, Hum Ind Value at Max Temp, Hum Ind Type,Pressure {Pa}, Wind Direction {deg CW from N}, Wind Speed {m/s}, Clearness, Rain, Snow
! <Environment:Design Day Misc>,DayOfYear,ASHRAE A Coeff,ASHRAE B Coeff,ASHRAE C Coeff,Solar Constant-Annual Variation,Eq of Time {minutes}, Solar Declination Angle {deg}, Solar Model
Environment:Design Day Data,-4.30,0.00,DefaultMultipliers,100237,110,1.2,0.00,No,No
Environment:Design Day Misc, 21,1229.0,0.1415,5.7310E-002,1.0,-11.15,-20.1,ASHRAEClearSky
Environment:WarmupDays,  6
! <Tabular Report>,Style,Unit Conversion
Tabular Report,Commaandhtml,commaandhtml
! <Warmup Convergence Information>,Zone Name,Environment Type/Name,Average Warmup Temperature Difference {deltaC},Std Dev Warmup Temperature Difference {deltaC},Max Temperature Pass/Fail Convergence,Min Temperature Pass/Fail Convergence,Average Warmup Load Difference {W},Std Dev Warmup Load Difference {W},Heating Load Pass/Fail Convergence,Cooling Load Pass/Fail Convergence
 Warmup Convergence Information,CORE_ZN,SizingPeriod: WILLIAM R FAIRCHILD ANN HTG 99.6% CONDNS DB,1.3253330726,0.2684402653,Pass,Pass,0.5171894088,0.5625960470,Pass,Pass
 Warmup Convergence Information,PERIMETER_ZN_1,SizingPeriod: WILLIAM R FAIRCHILD ANN HTG 99.6% CONDNS DB,2.5863748977,0.5109787044,Pass,Pass,0.5036711764,0.5112846423,Pass,Pass
 Warmup Convergence Information,PERIMETER_ZN_2,SizingPeriod: WILLIAM R FAIRCHILD ANN HTG 99.6% CONDNS DB,2.5744753399,0.5115435674,Pass,Pass,0.5040212800,0.5123770656,Pass,Pass
 Warmup Convergence Information,PERIMETER_ZN_3,SizingPeriod: WILLIAM R FAIRCHILD ANN HTG 99.6% CONDNS DB,2.5000167728,0.4937451755,Pass,Pass,0.5036354222,0.5111197428,Pass,Pass
 Warmup Convergence Information,PERIMETER_ZN_4,SizingPeriod: WILLIAM R FAIRCHILD ANN HTG 99.6% CONDNS DB,2.5563559157,0.5119144692,Pass,Pass,0.5040855225,0.5125749972,Pass,Pass
 Warmup Convergence Information,ATTIC,SizingPeriod: WILLIAM R FAIRCHILD ANN HTG 99.6% CONDNS DB,5.9687404545E-003,1.3913819060E-003,Pass,Pass,0.0000000000,0.0000000000,Pass,Pass
Environment,WILLIAM R FAIRCHILD ANN CLG .4% CONDNS DB=>MWB,SizingPeriod:DesignDay,08/21,08/21,SummerDesignDay,1,N/A,N/A,N/A,N/A,N/A,N/A
Environment:Daylight Saving,No,SizingPeriod:DesignDay
Environment:Design Day Data,26.40,9.10,DefaultMultipliers,100237,90,2.1,0.00,No,No
Environment:Design Day Misc,233,1106.3,0.2000,0.1216,1.0,-3.33,12.4,ASHRAETau
