Program Version,EnergyPlus, Version 9.2.0-921312fa1d, YMD=2020.01.15 16:48,
   ** Warning ** Timestep: Requested number (1) is less than the suggested minimum of 4.
   **   ~~~   ** Please see entry for Timestep in Input/Output Reference for discussion of considerations.
   ************* Beginning Zone Sizing Calculations
   ** Warning ** Weather file location will be used rather than entered (IDF) Location object.
   **   ~~~   ** ..Location object=WILLIAM R FAIRCHILD_WA_USA DESIGN_CONDITIONS
   **   ~~~   ** ..Weather File Location=Atlanta Hartsfield Intl Ap GA USA TMY3 WMO#=722190
   **   ~~~   ** ..due to location differences, Latitude difference=[14.49] degrees, Longitude difference=[39.07] degrees.
   **   ~~~   ** ..Time Zone difference=[3.0] hour(s), Elevation difference=[238.46] percent, [217.00] meters.
   ** Warning ** CheckUsedConstructions: There are 123 nominally unused constructions in input.
   **   ~~~   ** For explicit details on each unused construction, use Output:Diagnostics,DisplayExtraWarnings;
   ************* Beginning System Sizing Calculations
   ************* Beginning Plant Sizing Calculations
   ** Warning ** GetDXCoils: Coil:Heating:DX:SingleSpeed="PSZ-AC:1 HEAT PUMP DX HEATING COIL" curve values
   **   ~~~   ** ... Defrost Energy Input Ratio Function of Temperature Curve Name = HPACCOOLEIRFT output is not equal to 1.0 (+ or - 10%) at rated conditions.
   **   ~~~   ** ... Curve output at rated conditions = 0.787
   ** Warning ** GetDXCoils: Coil:Heating:DX:SingleSpeed="PSZ-AC:2 HEAT PUMP DX HEATING COIL" curve values
   **   ~~~   ** ... Defrost Energy Input Ratio Function of Temperature Curve Name = HPACCOOLEIRFT output is not equal to 1.0 (+ or - 10%) at rated conditions.
   **   ~~~   ** ... Curve output at rated conditions = 0.787
   ** Warning ** GetDXCoils: Coil:Heating:DX:SingleSpeed="PSZ-AC:3 HEAT PUMP DX HEATING COIL" curve values
   **   ~~~   ** ... Defrost Energy Input Ratio Function of Temperature Curve Name = HPACCOOLEIRFT output is not equal to 1.0 (+ or - 10%) at rated conditions.
   **   ~~~   ** ... Curve output at rated conditions = 0.787
   ** Warning ** GetDXCoils: Coil:Heating:DX:SingleSpeed="PSZ-AC:4 HEAT PUMP DX HEATING COIL" curve values
   **   ~~~   ** ... Defrost Energy Input Ratio Function of Temperature Curve Name = HPACCOOLEIRFT output is not equal to 1.0 (+ or - 10%) at rated conditions.
   **   ~~~   ** ... Curve output at rated conditions = 0.787
   ** Warning ** GetDXCoils: Coil:Heating:DX:SingleSpeed="PSZ-AC:5 HEAT PUMP DX HEATING COIL" curve values
   **   ~~~   ** ... Defrost Energy Input Ratio Function of Temperature Curve Name = HPACCOOLEIRFT output is not equal to 1.0 (+ or - 10%) at rated conditions.
   **   ~~~   ** ... Curve output at rated conditions = 0.787
   ** Warning ** The Standard Ratings is calculated for Coil:Cooling:DX:SingleSpeed = PSZ-AC:1 HEAT PUMP DX COOLING COIL but not at the AHRI test condition due to curve out of bound.
   **   ~~~   **  Review the Standard Ratings calculations in the Engineering Reference for this coil type. Also, use Output:Diagnostics, DisplayExtraWarnings for further guidance.
   ** Warning ** The Standard Ratings is calculated for Coil:Cooling:DX:SingleSpeed = PSZ-AC:2 HEAT PUMP DX COOLING COIL but not at the AHRI test condition due to curve out of bound.
   **   ~~~   **  Review the Standard Ratings calculations in the Engineering Reference for this coil type. Also, use Output:Diagnostics, DisplayExtraWarnings for further guidance.
   ** Warning ** The Standard Ratings is calculated for Coil:Cooling:DX:SingleSpeed = PSZ-AC:3 HEAT PUMP DX COOLING COIL but not at the AHRI test condition due to curve out of bound.
   **   ~~~   **  Review the Standard Ratings calculations in the Engineering Reference for this coil type. Also, use Output:Diagnostics, DisplayExtraWarnings for further guidance.
   ** Warning ** The Standard Ratings is calculated for Coil:Cooling:DX:SingleSpeed = PSZ-AC:4 HEAT PUMP DX COOLING COIL but not at the AHRI test condition due to curve out of bound.
   **   ~~~   **  Review the Standard Ratings calculations in the Engineering Reference for this coil type. Also, use Output:Diagnostics, DisplayExtraWarnings for further guidance.
   ** Warning ** The Standard Ratings is calculated for Coil:Cooling:DX:SingleSpeed = PSZ-AC:5 HEAT PUMP DX COOLING COIL but not at the AHRI test condition due to curve out of bound.
   **   ~~~   **  Review the Standard Ratings calculations in the Engineering Reference for this coil type. Also, use Output:Diagnostics, DisplayExtraWarnings for further guidance.
   ** Warning ** Check input. Pump nominal power or motor efficiency is set to 0, for pump=SHWSYS1 PUMP
   ** Warning ** Output:Meter: invalid Key Name="ELECTRICITY" - not found.
   ************* Testing Individual Branch Integrity
   ************* All Branches passed integrity testing
   ************* Testing Individual Supply Air Path Integrity
   ************* All Supply Air Paths passed integrity testing
   ************* Testing Individual Return Air Path Integrity
   ************* All Return Air Paths passed integrity testing
   ** Warning ** Potential Node Connection Error for object WATERHEATER:MIXED, name=SHWSYS1 WATER HEATER
   **   ~~~   **   Node Types are still UNDEFINED -- See Branch/Node Details file for further information
   **   ~~~   **   Inlet Node : SHWSYS1 PUMP-SHWSYS1 WATER HEATERNODE
   **   ~~~   **   Outlet Node: SHWSYS1 SUPPLY EQUIPMENT OUTLET NODE
   ************* There was 1 node connection error noted.
   ************* Beginning Simulation
